<routes xmlns:xsi="http://www.w3.org/2001/XMLSchema-instance" xsi:noNamespaceSchemaLocation="http://sumo.dlr.de/xsd/routes_file.xsd">
    <vType id="SUMO_DEFAULT_TYPE" accel="0.8" decel="4.5" sigma="0" length="5" minGap="2" maxSpeed="70"/>
    <route id="always_right" edges="1fi 1si 4o 4fi 4si 2o 2fi 2si 3o 3fi 3si 1o 1fi"/>
    <route id="always_left" edges="4fi 4si 1o 1fi 1si 3o 3fi 3si 2o 2fi 2si 4o 4fi"/>
    <route id="horizontal" edges="2fi 2si 1o 1fi 1si 2o 2fi"/>
    <route id="vertical" edges="3fi 3si 4o 4fi 4si 3o 3fi"/>

    
    <vehicle id="left_0" type="SUMO_DEFAULT_TYPE" route="vertical" depart="0" />
    <vehicle id="left_1" type="SUMO_DEFAULT_TYPE" route="vertical" depart="2" />
    <vehicle id="right_2" type="SUMO_DEFAULT_TYPE" route="horizontal" depart="3" />
    <vehicle id="down_3" type="SUMO_DEFAULT_TYPE" route="always_right" depart="4"/>
    <vehicle id="left_4" type="SUMO_DEFAULT_TYPE" route="vertical" depart="6" />
    <vehicle id="right_5" type="SUMO_DEFAULT_TYPE" route="horizontal" depart="7" />
    <vehicle id="down_6" type="SUMO_DEFAULT_TYPE" route="always_right" depart="8" />
    <vehicle id="right_7" type="SUMO_DEFAULT_TYPE" route="horizontal" depart="10" />
    <vehicle id="left_8" type="SUMO_DEFAULT_TYPE" route="vertical" depart="10" />
    <vehicle id="right_9" type="SUMO_DEFAULT_TYPE" route="horizontal" depart="11" />
    <vehicle id="right_10" type="SUMO_DEFAULT_TYPE" route="horizontal" depart="15" />
    <vehicle id="down_11" type="SUMO_DEFAULT_TYPE" route="always_left" depart="15" />
    <vehicle id="right_12" type="SUMO_DEFAULT_TYPE" route="horizontal" depart="18" />
    <vehicle id="right_13" type="SUMO_DEFAULT_TYPE" route="horizontal" depart="20" />
    <vehicle id="left_14" type="SUMO_DEFAULT_TYPE" route="vertical" depart="20" />
    <vehicle id="right_15" type="SUMO_DEFAULT_TYPE" route="horizontal" depart="22" />
    <vehicle id="left_16" type="SUMO_DEFAULT_TYPE" route="vertical" depart="22" />
    <vehicle id="right_17" type="SUMO_DEFAULT_TYPE" route="horizontal" depart="23" />
    <vehicle id="right_18" type="SUMO_DEFAULT_TYPE" route="horizontal" depart="25" />
    <vehicle id="right_19" type="SUMO_DEFAULT_TYPE" route="horizontal" depart="26" />
    <vehicle id="left_20" type="SUMO_DEFAULT_TYPE" route="vertical" depart="26" />
    <vehicle id="right_21" type="SUMO_DEFAULT_TYPE" route="horizontal" depart="27" />
    <vehicle id="down_22" type="SUMO_DEFAULT_TYPE" route="always_left" depart="27" />
    <vehicle id="left_23" type="SUMO_DEFAULT_TYPE" route="vertical" depart="27" />
    <vehicle id="right_24" type="SUMO_DEFAULT_TYPE" route="horizontal" depart="28" />
    <vehicle id="down_25" type="SUMO_DEFAULT_TYPE" route="always_left" depart="29" />
    <vehicle id="right_26" type="SUMO_DEFAULT_TYPE" route="horizontal" depart="30" />
    <vehicle id="down_27" type="SUMO_DEFAULT_TYPE" route="always_left" depart="30" />
    <vehicle id="down_28" type="SUMO_DEFAULT_TYPE" route="always_right" depart="31" />
    <vehicle id="down_29" type="SUMO_DEFAULT_TYPE" route="always_right" depart="32" />
    <vehicle id="right_30" type="SUMO_DEFAULT_TYPE" route="horizontal" depart="32" />
    <vehicle id="left_31" type="SUMO_DEFAULT_TYPE" route="vertical" depart="33" />
    <vehicle id="left_32" type="SUMO_DEFAULT_TYPE" route="vertical" depart="34" />
    <vehicle id="left_33" type="SUMO_DEFAULT_TYPE" route="vertical" depart="35" />
    <vehicle id="left_34" type="SUMO_DEFAULT_TYPE" route="vertical" depart="36" />
    <vehicle id="right_35" type="SUMO_DEFAULT_TYPE" route="horizontal" depart="36" />
    <vehicle id="right_36" type="SUMO_DEFAULT_TYPE" route="horizontal" depart="37" />
    <vehicle id="left_37" type="SUMO_DEFAULT_TYPE" route="vertical" depart="39" />
    <vehicle id="down_38" type="SUMO_DEFAULT_TYPE" route="always_left" depart="39" />
    <vehicle id="right_39" type="SUMO_DEFAULT_TYPE" route="horizontal" depart="39" />
    <vehicle id="down_40" type="SUMO_DEFAULT_TYPE" route="always_right" depart="40" />
    <vehicle id="left_41" type="SUMO_DEFAULT_TYPE" route="vertical" depart="41" />
    <vehicle id="right_42" type="SUMO_DEFAULT_TYPE" route="horizontal" depart="42" />
    <vehicle id="right_43" type="SUMO_DEFAULT_TYPE" route="horizontal" depart="45" />
    <vehicle id="left_44" type="SUMO_DEFAULT_TYPE" route="vertical" depart="45" />
    <vehicle id="down_45" type="SUMO_DEFAULT_TYPE" route="always_left" depart="46" />
    <vehicle id="right_46" type="SUMO_DEFAULT_TYPE" route="horizontal" depart="47" />
    <vehicle id="right_47" type="SUMO_DEFAULT_TYPE" route="horizontal" depart="48" />
    <vehicle id="left_48" type="SUMO_DEFAULT_TYPE" route="vertical" depart="48" />
    <vehicle id="right_49" type="SUMO_DEFAULT_TYPE" route="horizontal" depart="48" />
    <vehicle id="right_50" type="SUMO_DEFAULT_TYPE" route="horizontal" depart="49" />
    <vehicle id="right_51" type="SUMO_DEFAULT_TYPE" route="horizontal" depart="50" />
    <vehicle id="right_52" type="SUMO_DEFAULT_TYPE" route="horizontal" depart="51" />
    <vehicle id="right_53" type="SUMO_DEFAULT_TYPE" route="horizontal" depart="52" />
    <vehicle id="right_54" type="SUMO_DEFAULT_TYPE" route="horizontal" depart="53" />
    <vehicle id="left_55" type="SUMO_DEFAULT_TYPE" route="vertical" depart="53" />
    <vehicle id="down_56" type="SUMO_DEFAULT_TYPE" route="always_left" depart="53" />
    <vehicle id="right_57" type="SUMO_DEFAULT_TYPE" route="horizontal" depart="54" />
    <vehicle id="right_58" type="SUMO_DEFAULT_TYPE" route="horizontal" depart="55" />
    <vehicle id="left_59" type="SUMO_DEFAULT_TYPE" route="vertical" depart="55" />
    <vehicle id="down_60" type="SUMO_DEFAULT_TYPE" route="always_left" depart="55" />
    <vehicle id="right_61" type="SUMO_DEFAULT_TYPE" route="horizontal" depart="57" />
    <vehicle id="left_62" type="SUMO_DEFAULT_TYPE" route="vertical" depart="58" />
    <vehicle id="right_63" type="SUMO_DEFAULT_TYPE" route="horizontal" depart="58" />
    <vehicle id="right_64" type="SUMO_DEFAULT_TYPE" route="horizontal" depart="59" />
    <vehicle id="down_65" type="SUMO_DEFAULT_TYPE" route="always_left" depart="59" />
    <vehicle id="right_66" type="SUMO_DEFAULT_TYPE" route="horizontal" depart="59" />
    <vehicle id="right_67" type="SUMO_DEFAULT_TYPE" route="horizontal" depart="60" />
    <vehicle id="down_68" type="SUMO_DEFAULT_TYPE" route="always_right" depart="60" />
    <vehicle id="right_69" type="SUMO_DEFAULT_TYPE" route="horizontal" depart="60" />
    <vehicle id="left_70" type="SUMO_DEFAULT_TYPE" route="vertical" depart="61" />
    <vehicle id="right_71" type="SUMO_DEFAULT_TYPE" route="horizontal" depart="61" />
    <vehicle id="down_72" type="SUMO_DEFAULT_TYPE" route="always_left" depart="61" />
    <vehicle id="left_73" type="SUMO_DEFAULT_TYPE" route="vertical" depart="61" />
    <vehicle id="down_74" type="SUMO_DEFAULT_TYPE" route="always_left" depart="63" />
    <vehicle id="left_75" type="SUMO_DEFAULT_TYPE" route="vertical" depart="63" />
    <vehicle id="left_76" type="SUMO_DEFAULT_TYPE" route="vertical" depart="65" />
    <vehicle id="right_77" type="SUMO_DEFAULT_TYPE" route="horizontal" depart="66" />
    <vehicle id="left_78" type="SUMO_DEFAULT_TYPE" route="vertical" depart="66" />
    <vehicle id="left_79" type="SUMO_DEFAULT_TYPE" route="vertical" depart="67" />
    <vehicle id="down_80" type="SUMO_DEFAULT_TYPE" route="always_right" depart="68" />
    <vehicle id="right_81" type="SUMO_DEFAULT_TYPE" route="horizontal" depart="68" />
    <vehicle id="left_82" type="SUMO_DEFAULT_TYPE" route="vertical" depart="68" />
    <vehicle id="left_83" type="SUMO_DEFAULT_TYPE" route="vertical" depart="69" />
    <vehicle id="right_84" type="SUMO_DEFAULT_TYPE" route="horizontal" depart="69" />
    <vehicle id="down_85" type="SUMO_DEFAULT_TYPE" route="always_left" depart="70" />
    <vehicle id="right_86" type="SUMO_DEFAULT_TYPE" route="horizontal" depart="71" />
    <vehicle id="left_87" type="SUMO_DEFAULT_TYPE" route="vertical" depart="71" />
    <vehicle id="right_88" type="SUMO_DEFAULT_TYPE" route="horizontal" depart="72" />
    <vehicle id="left_89" type="SUMO_DEFAULT_TYPE" route="vertical" depart="72" />
    <vehicle id="right_90" type="SUMO_DEFAULT_TYPE" route="horizontal" depart="74" />
    <vehicle id="right_91" type="SUMO_DEFAULT_TYPE" route="horizontal" depart="75" />
    <vehicle id="right_92" type="SUMO_DEFAULT_TYPE" route="horizontal" depart="76" />
    <vehicle id="left_93" type="SUMO_DEFAULT_TYPE" route="vertical" depart="76" />
    <vehicle id="right_94" type="SUMO_DEFAULT_TYPE" route="horizontal" depart="77" />
    <vehicle id="right_95" type="SUMO_DEFAULT_TYPE" route="horizontal" depart="78" />
    <vehicle id="down_96" type="SUMO_DEFAULT_TYPE" route="always_left" depart="79" />
    <vehicle id="right_97" type="SUMO_DEFAULT_TYPE" route="horizontal" depart="80" />
    <vehicle id="left_98" type="SUMO_DEFAULT_TYPE" route="vertical" depart="80" />
    <vehicle id="down_99" type="SUMO_DEFAULT_TYPE" route="always_right" depart="80" />
    <vehicle id="right_100" type="SUMO_DEFAULT_TYPE" route="horizontal" depart="81" />
    <vehicle id="right_101" type="SUMO_DEFAULT_TYPE" route="horizontal" depart="83" />
    <vehicle id="down_102" type="SUMO_DEFAULT_TYPE" route="always_right" depart="85" />
    <vehicle id="right_103" type="SUMO_DEFAULT_TYPE" route="horizontal" depart="85" />
    <vehicle id="left_104" type="SUMO_DEFAULT_TYPE" route="vertical" depart="86" />
    <vehicle id="right_105" type="SUMO_DEFAULT_TYPE" route="horizontal" depart="87" />
    <vehicle id="left_106" type="SUMO_DEFAULT_TYPE" route="vertical" depart="88" />
    <vehicle id="left_107" type="SUMO_DEFAULT_TYPE" route="vertical" depart="89" />
    <vehicle id="left_108" type="SUMO_DEFAULT_TYPE" route="vertical" depart="90" />
    <vehicle id="right_109" type="SUMO_DEFAULT_TYPE" route="horizontal" depart="90" />
    <vehicle id="right_110" type="SUMO_DEFAULT_TYPE" route="horizontal" depart="91" />
    <vehicle id="left_111" type="SUMO_DEFAULT_TYPE" route="vertical" depart="92" />
    <vehicle id="left_112" type="SUMO_DEFAULT_TYPE" route="vertical" depart="93" />
    <vehicle id="right_113" type="SUMO_DEFAULT_TYPE" route="horizontal" depart="94" />
    <vehicle id="left_114" type="SUMO_DEFAULT_TYPE" route="vertical" depart="95" />
    <vehicle id="right_115" type="SUMO_DEFAULT_TYPE" route="horizontal" depart="96" />
    <vehicle id="right_116" type="SUMO_DEFAULT_TYPE" route="horizontal" depart="97" />
    <vehicle id="left_117" type="SUMO_DEFAULT_TYPE" route="vertical" depart="97" />
    <vehicle id="right_118" type="SUMO_DEFAULT_TYPE" route="horizontal" depart="98" />
    <vehicle id="left_119" type="SUMO_DEFAULT_TYPE" route="vertical" depart="98" />
    <vehicle id="right_120" type="SUMO_DEFAULT_TYPE" route="horizontal" depart="99" />
    <vehicle id="left_121" type="SUMO_DEFAULT_TYPE" route="vertical" depart="100" />
    <vehicle id="left_122" type="SUMO_DEFAULT_TYPE" route="vertical" depart="102" />
    <vehicle id="right_123" type="SUMO_DEFAULT_TYPE" route="horizontal" depart="103" />
    <vehicle id="left_124" type="SUMO_DEFAULT_TYPE" route="vertical" depart="104" />
    <vehicle id="down_125" type="SUMO_DEFAULT_TYPE" route="always_right" depart="104" />
    <vehicle id="down_126" type="SUMO_DEFAULT_TYPE" route="always_left" depart="104" />
    <vehicle id="right_127" type="SUMO_DEFAULT_TYPE" route="horizontal" depart="104" />
    <vehicle id="down_128" type="SUMO_DEFAULT_TYPE" route="always_right" depart="105" />
    <vehicle id="right_129" type="SUMO_DEFAULT_TYPE" route="horizontal" depart="106" />
    <vehicle id="right_130" type="SUMO_DEFAULT_TYPE" route="horizontal" depart="107" />
    <vehicle id="down_131" type="SUMO_DEFAULT_TYPE" route="always_left" depart="107" />
    <vehicle id="left_132" type="SUMO_DEFAULT_TYPE" route="vertical" depart="107" />
    <vehicle id="right_133" type="SUMO_DEFAULT_TYPE" route="horizontal" depart="108" />
    <vehicle id="right_134" type="SUMO_DEFAULT_TYPE" route="horizontal" depart="109" />
    <vehicle id="right_135" type="SUMO_DEFAULT_TYPE" route="horizontal" depart="110" />
    <vehicle id="left_136" type="SUMO_DEFAULT_TYPE" route="vertical" depart="110" />
    <vehicle id="down_137" type="SUMO_DEFAULT_TYPE" route="always_right" depart="110" />
    <vehicle id="left_138" type="SUMO_DEFAULT_TYPE" route="vertical" depart="112" />
    <vehicle id="down_139" type="SUMO_DEFAULT_TYPE" route="always_left" depart="113" />
    <vehicle id="down_140" type="SUMO_DEFAULT_TYPE" route="always_left" depart="114" />
    <vehicle id="right_141" type="SUMO_DEFAULT_TYPE" route="horizontal" depart="114" />
    <vehicle id="left_142" type="SUMO_DEFAULT_TYPE" route="vertical" depart="114" />
    <vehicle id="right_143" type="SUMO_DEFAULT_TYPE" route="horizontal" depart="116" />
    <vehicle id="right_144" type="SUMO_DEFAULT_TYPE" route="horizontal" depart="117" />
    <vehicle id="down_145" type="SUMO_DEFAULT_TYPE" route="always_left" depart="117" />
    <vehicle id="right_146" type="SUMO_DEFAULT_TYPE" route="horizontal" depart="118" />
    <vehicle id="right_147" type="SUMO_DEFAULT_TYPE" route="horizontal" depart="119" />
    <vehicle id="right_148" type="SUMO_DEFAULT_TYPE" route="horizontal" depart="121" />
    <vehicle id="down_149" type="SUMO_DEFAULT_TYPE" route="always_left" depart="121" />
    <vehicle id="down_150" type="SUMO_DEFAULT_TYPE" route="always_left" depart="123" />
    <vehicle id="right_151" type="SUMO_DEFAULT_TYPE" route="horizontal" depart="123" />
    <vehicle id="right_152" type="SUMO_DEFAULT_TYPE" route="horizontal" depart="124" />
    <vehicle id="left_153" type="SUMO_DEFAULT_TYPE" route="vertical" depart="125" />
    <vehicle id="right_154" type="SUMO_DEFAULT_TYPE" route="horizontal" depart="126" />
    <vehicle id="right_155" type="SUMO_DEFAULT_TYPE" route="horizontal" depart="127" />
    <vehicle id="right_156" type="SUMO_DEFAULT_TYPE" route="horizontal" depart="128" />
    <vehicle id="right_157" type="SUMO_DEFAULT_TYPE" route="horizontal" depart="129" />
    <vehicle id="right_158" type="SUMO_DEFAULT_TYPE" route="horizontal" depart="131" />
    <vehicle id="left_159" type="SUMO_DEFAULT_TYPE" route="vertical" depart="131" />
    <vehicle id="left_160" type="SUMO_DEFAULT_TYPE" route="vertical" depart="133" />
    <vehicle id="right_161" type="SUMO_DEFAULT_TYPE" route="horizontal" depart="133" />
    <vehicle id="left_162" type="SUMO_DEFAULT_TYPE" route="vertical" depart="134" />
    <vehicle id="down_163" type="SUMO_DEFAULT_TYPE" route="always_left" depart="134" />
    <vehicle id="right_164" type="SUMO_DEFAULT_TYPE" route="horizontal" depart="134" />
    <vehicle id="right_165" type="SUMO_DEFAULT_TYPE" route="horizontal" depart="135" />
    <vehicle id="right_166" type="SUMO_DEFAULT_TYPE" route="horizontal" depart="136" />
    <vehicle id="right_167" type="SUMO_DEFAULT_TYPE" route="horizontal" depart="138" />
    <vehicle id="left_168" type="SUMO_DEFAULT_TYPE" route="vertical" depart="138" />
    <vehicle id="down_169" type="SUMO_DEFAULT_TYPE" route="always_left" depart="138" />
    <vehicle id="down_170" type="SUMO_DEFAULT_TYPE" route="always_left" depart="140" />
    <vehicle id="right_171" type="SUMO_DEFAULT_TYPE" route="horizontal" depart="141" />
    <vehicle id="down_172" type="SUMO_DEFAULT_TYPE" route="always_right" depart="141" />
    <vehicle id="right_173" type="SUMO_DEFAULT_TYPE" route="horizontal" depart="142" />
    <vehicle id="right_174" type="SUMO_DEFAULT_TYPE" route="horizontal" depart="143" />
    <vehicle id="right_175" type="SUMO_DEFAULT_TYPE" route="horizontal" depart="145" />
    <vehicle id="right_176" type="SUMO_DEFAULT_TYPE" route="horizontal" depart="146" />
    <vehicle id="down_177" type="SUMO_DEFAULT_TYPE" route="always_left" depart="146" />
    <vehicle id="right_178" type="SUMO_DEFAULT_TYPE" route="horizontal" depart="147" />
    <vehicle id="left_179" type="SUMO_DEFAULT_TYPE" route="vertical" depart="147" />
    <vehicle id="right_180" type="SUMO_DEFAULT_TYPE" route="horizontal" depart="149" />
    <vehicle id="left_181" type="SUMO_DEFAULT_TYPE" route="vertical" depart="150" />
    <vehicle id="right_182" type="SUMO_DEFAULT_TYPE" route="horizontal" depart="151" />
    <vehicle id="right_183" type="SUMO_DEFAULT_TYPE" route="horizontal" depart="152" />
    <vehicle id="right_184" type="SUMO_DEFAULT_TYPE" route="horizontal" depart="153" />
    <vehicle id="down_185" type="SUMO_DEFAULT_TYPE" route="always_right" depart="153" />
    <vehicle id="down_186" type="SUMO_DEFAULT_TYPE" route="always_right" depart="155" />
    <vehicle id="right_187" type="SUMO_DEFAULT_TYPE" route="horizontal" depart="156" />
    <vehicle id="right_188" type="SUMO_DEFAULT_TYPE" route="horizontal" depart="157" />
    <vehicle id="down_189" type="SUMO_DEFAULT_TYPE" route="always_right" depart="157" />
    <vehicle id="right_190" type="SUMO_DEFAULT_TYPE" route="horizontal" depart="159" />
    <vehicle id="left_191" type="SUMO_DEFAULT_TYPE" route="vertical" depart="159" />
    <vehicle id="left_192" type="SUMO_DEFAULT_TYPE" route="vertical" depart="160" />
    <vehicle id="right_193" type="SUMO_DEFAULT_TYPE" route="horizontal" depart="161" />
    <vehicle id="left_194" type="SUMO_DEFAULT_TYPE" route="vertical" depart="163" />
    <vehicle id="right_195" type="SUMO_DEFAULT_TYPE" route="horizontal" depart="163" />
    <vehicle id="left_196" type="SUMO_DEFAULT_TYPE" route="vertical" depart="164" />
    <vehicle id="left_197" type="SUMO_DEFAULT_TYPE" route="vertical" depart="165" />
    <vehicle id="down_198" type="SUMO_DEFAULT_TYPE" route="always_right" depart="165" />
    <vehicle id="left_199" type="SUMO_DEFAULT_TYPE" route="vertical" depart="168" />
    <vehicle id="right_200" type="SUMO_DEFAULT_TYPE" route="horizontal" depart="169" />
    <vehicle id="left_201" type="SUMO_DEFAULT_TYPE" route="vertical" depart="170" />
    <vehicle id="left_202" type="SUMO_DEFAULT_TYPE" route="vertical" depart="171" />
    <vehicle id="left_203" type="SUMO_DEFAULT_TYPE" route="vertical" depart="173" />
    <vehicle id="down_204" type="SUMO_DEFAULT_TYPE" route="always_right" depart="174" />
    <vehicle id="right_205" type="SUMO_DEFAULT_TYPE" route="horizontal" depart="175" />
    <vehicle id="down_206" type="SUMO_DEFAULT_TYPE" route="always_right" depart="177" />
    <vehicle id="left_207" type="SUMO_DEFAULT_TYPE" route="vertical" depart="177" />
    <vehicle id="left_208" type="SUMO_DEFAULT_TYPE" route="vertical" depart="178" />
    <vehicle id="left_209" type="SUMO_DEFAULT_TYPE" route="vertical" depart="182" />
    <vehicle id="left_210" type="SUMO_DEFAULT_TYPE" route="vertical" depart="183" />
    <vehicle id="right_211" type="SUMO_DEFAULT_TYPE" route="horizontal" depart="183" />
    <vehicle id="left_212" type="SUMO_DEFAULT_TYPE" route="vertical" depart="185" />
    <vehicle id="right_213" type="SUMO_DEFAULT_TYPE" route="horizontal" depart="185" />
    <vehicle id="right_214" type="SUMO_DEFAULT_TYPE" route="horizontal" depart="186" />
    <vehicle id="left_215" type="SUMO_DEFAULT_TYPE" route="vertical" depart="187" />
    <vehicle id="right_216" type="SUMO_DEFAULT_TYPE" route="horizontal" depart="189" />
    <vehicle id="right_217" type="SUMO_DEFAULT_TYPE" route="horizontal" depart="190" />
    <vehicle id="down_218" type="SUMO_DEFAULT_TYPE" route="always_left" depart="190" />
    <vehicle id="left_219" type="SUMO_DEFAULT_TYPE" route="vertical" depart="192" />
    <vehicle id="left_220" type="SUMO_DEFAULT_TYPE" route="vertical" depart="193" />
    <vehicle id="right_221" type="SUMO_DEFAULT_TYPE" route="horizontal" depart="194" />
    <vehicle id="left_222" type="SUMO_DEFAULT_TYPE" route="vertical" depart="195" />
    <vehicle id="right_223" type="SUMO_DEFAULT_TYPE" route="horizontal" depart="196" />
    <vehicle id="right_224" type="SUMO_DEFAULT_TYPE" route="horizontal" depart="197" />
    <vehicle id="right_225" type="SUMO_DEFAULT_TYPE" route="horizontal" depart="198" />
    <vehicle id="right_226" type="SUMO_DEFAULT_TYPE" route="horizontal" depart="199" />
    <vehicle id="right_227" type="SUMO_DEFAULT_TYPE" route="horizontal" depart="200" />
    <vehicle id="down_228" type="SUMO_DEFAULT_TYPE" route="always_right" depart="200" />
    <vehicle id="right_229" type="SUMO_DEFAULT_TYPE" route="horizontal" depart="201" />
    <vehicle id="down_230" type="SUMO_DEFAULT_TYPE" route="always_left" depart="201" />
    <vehicle id="right_231" type="SUMO_DEFAULT_TYPE" route="horizontal" depart="203" />
    <vehicle id="left_232" type="SUMO_DEFAULT_TYPE" route="vertical" depart="204" />
    <vehicle id="down_233" type="SUMO_DEFAULT_TYPE" route="always_right" depart="204" />
    <vehicle id="right_234" type="SUMO_DEFAULT_TYPE" route="horizontal" depart="205" />
    <vehicle id="left_235" type="SUMO_DEFAULT_TYPE" route="vertical" depart="206" />
    <vehicle id="down_236" type="SUMO_DEFAULT_TYPE" route="always_right" depart="206" />
    <vehicle id="right_237" type="SUMO_DEFAULT_TYPE" route="horizontal" depart="207" />
    <vehicle id="left_238" type="SUMO_DEFAULT_TYPE" route="vertical" depart="208" />
    <vehicle id="left_239" type="SUMO_DEFAULT_TYPE" route="vertical" depart="209" />
    <vehicle id="down_240" type="SUMO_DEFAULT_TYPE" route="always_left" depart="209" />
    <vehicle id="left_241" type="SUMO_DEFAULT_TYPE" route="vertical" depart="210" />
    <vehicle id="down_242" type="SUMO_DEFAULT_TYPE" route="always_left" depart="211" />
    <vehicle id="down_243" type="SUMO_DEFAULT_TYPE" route="always_right" depart="211" />
    <vehicle id="right_244" type="SUMO_DEFAULT_TYPE" route="horizontal" depart="212" />
    <vehicle id="down_245" type="SUMO_DEFAULT_TYPE" route="always_right" depart="212" />
    <vehicle id="down_246" type="SUMO_DEFAULT_TYPE" route="always_right" depart="213" />
    <vehicle id="right_247" type="SUMO_DEFAULT_TYPE" route="horizontal" depart="214" />
    <vehicle id="right_248" type="SUMO_DEFAULT_TYPE" route="horizontal" depart="215" />
    <vehicle id="right_249" type="SUMO_DEFAULT_TYPE" route="horizontal" depart="217" />
    <vehicle id="right_250" type="SUMO_DEFAULT_TYPE" route="horizontal" depart="218" />
    <vehicle id="left_251" type="SUMO_DEFAULT_TYPE" route="vertical" depart="218" />
    <vehicle id="right_252" type="SUMO_DEFAULT_TYPE" route="horizontal" depart="219" />
    <vehicle id="down_253" type="SUMO_DEFAULT_TYPE" route="always_left" depart="220" />
    <vehicle id="left_254" type="SUMO_DEFAULT_TYPE" route="vertical" depart="220" />
    <vehicle id="left_255" type="SUMO_DEFAULT_TYPE" route="vertical" depart="221" />
    <vehicle id="left_256" type="SUMO_DEFAULT_TYPE" route="vertical" depart="222" />
    <vehicle id="left_257" type="SUMO_DEFAULT_TYPE" route="vertical" depart="223" />
    <vehicle id="right_258" type="SUMO_DEFAULT_TYPE" route="horizontal" depart="223" />
    <vehicle id="left_259" type="SUMO_DEFAULT_TYPE" route="vertical" depart="224" />
    <vehicle id="down_260" type="SUMO_DEFAULT_TYPE" route="always_left" depart="225" />
    <vehicle id="right_261" type="SUMO_DEFAULT_TYPE" route="horizontal" depart="226" />
    <vehicle id="right_262" type="SUMO_DEFAULT_TYPE" route="horizontal" depart="227" />
    <vehicle id="left_263" type="SUMO_DEFAULT_TYPE" route="vertical" depart="227" />
    <vehicle id="left_264" type="SUMO_DEFAULT_TYPE" route="vertical" depart="228" />
    <vehicle id="left_265" type="SUMO_DEFAULT_TYPE" route="vertical" depart="230" />
    <vehicle id="left_266" type="SUMO_DEFAULT_TYPE" route="vertical" depart="231" />
    <vehicle id="left_267" type="SUMO_DEFAULT_TYPE" route="vertical" depart="232" />
    <vehicle id="right_268" type="SUMO_DEFAULT_TYPE" route="horizontal" depart="232" />
    <vehicle id="left_269" type="SUMO_DEFAULT_TYPE" route="vertical" depart="235" />
    <vehicle id="right_270" type="SUMO_DEFAULT_TYPE" route="horizontal" depart="236" />
    <vehicle id="right_271" type="SUMO_DEFAULT_TYPE" route="horizontal" depart="237" />
    <vehicle id="right_272" type="SUMO_DEFAULT_TYPE" route="horizontal" depart="238" />
    <vehicle id="down_273" type="SUMO_DEFAULT_TYPE" route="always_right" depart="238" />
    <vehicle id="left_274" type="SUMO_DEFAULT_TYPE" route="vertical" depart="238" />
    <vehicle id="right_275" type="SUMO_DEFAULT_TYPE" route="horizontal" depart="239" />
    <vehicle id="down_276" type="SUMO_DEFAULT_TYPE" route="always_right" depart="240" />
    <vehicle id="right_277" type="SUMO_DEFAULT_TYPE" route="horizontal" depart="241" />
    <vehicle id="right_278" type="SUMO_DEFAULT_TYPE" route="horizontal" depart="242" />
    <vehicle id="left_279" type="SUMO_DEFAULT_TYPE" route="vertical" depart="242" />
    <vehicle id="down_280" type="SUMO_DEFAULT_TYPE" route="always_left" depart="941" />
    <vehicle id="right_281" type="SUMO_DEFAULT_TYPE" route="horizontal" depart="242" />
    <vehicle id="right_282" type="SUMO_DEFAULT_TYPE" route="horizontal" depart="244" />
    <vehicle id="left_283" type="SUMO_DEFAULT_TYPE" route="vertical" depart="244" />
    <vehicle id="left_284" type="SUMO_DEFAULT_TYPE" route="vertical" depart="245" />
    <vehicle id="right_285" type="SUMO_DEFAULT_TYPE" route="horizontal" depart="246" />
    <vehicle id="right_286" type="SUMO_DEFAULT_TYPE" route="horizontal" depart="247" />
    <vehicle id="left_287" type="SUMO_DEFAULT_TYPE" route="vertical" depart="248" />
    <vehicle id="down_288" type="SUMO_DEFAULT_TYPE" route="always_right" depart="249" />
    <vehicle id="left_289" type="SUMO_DEFAULT_TYPE" route="vertical" depart="249" />
    <vehicle id="right_290" type="SUMO_DEFAULT_TYPE" route="horizontal" depart="250" />
    <vehicle id="right_291" type="SUMO_DEFAULT_TYPE" route="horizontal" depart="252" />
    <vehicle id="right_292" type="SUMO_DEFAULT_TYPE" route="horizontal" depart="253" />
    <vehicle id="right_293" type="SUMO_DEFAULT_TYPE" route="horizontal" depart="254" />
    <vehicle id="left_294" type="SUMO_DEFAULT_TYPE" route="vertical" depart="254" />
    <vehicle id="down_295" type="SUMO_DEFAULT_TYPE" route="always_left" depart="254" />
    <vehicle id="right_296" type="SUMO_DEFAULT_TYPE" route="horizontal" depart="255" />
    <vehicle id="down_297" type="SUMO_DEFAULT_TYPE" route="always_left" depart="256" />
    <vehicle id="right_298" type="SUMO_DEFAULT_TYPE" route="horizontal" depart="258" />
    <vehicle id="left_299" type="SUMO_DEFAULT_TYPE" route="vertical" depart="258" />
    <vehicle id="right_300" type="SUMO_DEFAULT_TYPE" route="horizontal" depart="259" />
    <vehicle id="right_301" type="SUMO_DEFAULT_TYPE" route="horizontal" depart="260" />
    <vehicle id="right_302" type="SUMO_DEFAULT_TYPE" route="horizontal" depart="261" />
    <vehicle id="left_303" type="SUMO_DEFAULT_TYPE" route="vertical" depart="261" />
    <vehicle id="down_304" type="SUMO_DEFAULT_TYPE" route="always_right" depart="262" />
    <vehicle id="right_305" type="SUMO_DEFAULT_TYPE" route="horizontal" depart="263" />
    <vehicle id="right_306" type="SUMO_DEFAULT_TYPE" route="horizontal" depart="264" />
    <vehicle id="down_307" type="SUMO_DEFAULT_TYPE" route="always_left" depart="264" />
    <vehicle id="left_308" type="SUMO_DEFAULT_TYPE" route="vertical" depart="265" />
    <vehicle id="right_309" type="SUMO_DEFAULT_TYPE" route="horizontal" depart="265" />
    <vehicle id="left_310" type="SUMO_DEFAULT_TYPE" route="vertical" depart="266" />
    <vehicle id="down_311" type="SUMO_DEFAULT_TYPE" route="always_left" depart="266" />
    <vehicle id="right_312" type="SUMO_DEFAULT_TYPE" route="horizontal" depart="267" />
    <vehicle id="right_313" type="SUMO_DEFAULT_TYPE" route="horizontal" depart="268" />
    <vehicle id="right_314" type="SUMO_DEFAULT_TYPE" route="horizontal" depart="269" />
    <vehicle id="right_315" type="SUMO_DEFAULT_TYPE" route="horizontal" depart="270" />
    <vehicle id="right_316" type="SUMO_DEFAULT_TYPE" route="horizontal" depart="271" />
    <vehicle id="right_317" type="SUMO_DEFAULT_TYPE" route="horizontal" depart="273" />
    <vehicle id="right_318" type="SUMO_DEFAULT_TYPE" route="horizontal" depart="274" />
    <vehicle id="down_319" type="SUMO_DEFAULT_TYPE" route="always_right" depart="274" />
    <vehicle id="right_320" type="SUMO_DEFAULT_TYPE" route="horizontal" depart="275" />
    <vehicle id="down_321" type="SUMO_DEFAULT_TYPE" route="always_left" depart="275" />
    <vehicle id="left_322" type="SUMO_DEFAULT_TYPE" route="vertical" depart="275" />
    <vehicle id="right_323" type="SUMO_DEFAULT_TYPE" route="horizontal" depart="277" />
    <vehicle id="down_324" type="SUMO_DEFAULT_TYPE" route="always_left" depart="277" />
    <vehicle id="down_325" type="SUMO_DEFAULT_TYPE" route="always_right" depart="278" />
    <vehicle id="down_326" type="SUMO_DEFAULT_TYPE" route="always_right" depart="279" />
    <vehicle id="down_327" type="SUMO_DEFAULT_TYPE" route="always_right" depart="280" />
    <vehicle id="down_328" type="SUMO_DEFAULT_TYPE" route="always_right" depart="281" />
    <vehicle id="right_329" type="SUMO_DEFAULT_TYPE" route="horizontal" depart="281" />
    <vehicle id="left_330" type="SUMO_DEFAULT_TYPE" route="vertical" depart="281" />
    <vehicle id="left_331" type="SUMO_DEFAULT_TYPE" route="vertical" depart="282" />
    <vehicle id="right_332" type="SUMO_DEFAULT_TYPE" route="horizontal" depart="283" />
    <vehicle id="down_333" type="SUMO_DEFAULT_TYPE" route="always_right" depart="284" />
    <vehicle id="right_334" type="SUMO_DEFAULT_TYPE" route="horizontal" depart="284" />
    <vehicle id="left_335" type="SUMO_DEFAULT_TYPE" route="vertical" depart="285" />
    <vehicle id="right_336" type="SUMO_DEFAULT_TYPE" route="horizontal" depart="286" />
    <vehicle id="right_337" type="SUMO_DEFAULT_TYPE" route="horizontal" depart="287" />
    <vehicle id="right_338" type="SUMO_DEFAULT_TYPE" route="horizontal" depart="288" />
    <vehicle id="left_339" type="SUMO_DEFAULT_TYPE" route="vertical" depart="288" />