<?xml version="1.0" encoding="UTF-8"?>

<!-- generated on 01/16/20 12:27:21 by Eclipse SUMO netconvert Version 1.2.0
<configuration xmlns:xsi="http://www.w3.org/2001/XMLSchema-instance" xsi:noNamespaceSchemaLocation="http://sumo.dlr.de/xsd/netconvertConfiguration.xsd">

    <input>
        <sumo-net-file value="net.net.xml"/>
    </input>

    <output>
        <plain-output-prefix value="plain"/>
    </output>

    <processing>
        <geometry.max-grade.fix value="false"/>
        <offset.disable-normalization value="true"/>
        <lefthand value="false"/>
    </processing>

    <junctions>
        <no-turnarounds value="true"/>
        <junctions.corner-detail value="0"/>
        <junctions.limit-turn-speed value="-1"/>
        <rectangular-lane-cut value="false"/>
    </junctions>

    <pedestrian>
        <walkingareas value="false"/>
    </pedestrian>

</configuration>
-->

<tlLogics version="1.1" xmlns:xsi="http://www.w3.org/2001/XMLSchema-instance" xsi:noNamespaceSchemaLocation="http://sumo.dlr.de/xsd/tllogic_file.xsd">
    <tlLogic id="0" type="static" programID="0" offset="0">
        <phase duration="31" state="GGggrrrrGGggrrrr"/>
        <phase duration="4"  state="yyggrrrryyggrrrr"/>
        <phase duration="6"  state="rrGGrrrrrrGGrrrr"/>
        <phase duration="4"  state="rryyrrrrrryyrrrr"/>
        <phase duration="31" state="rrrrGGggrrrrGGgg"/>
        <phase duration="4"  state="rrrryyggrrrryygg"/>
        <phase duration="6"  state="rrrrrrGGrrrrrrGG"/>
        <phase duration="4"  state="rrrrrryyrrrrrryy"/>
    </tlLogic>

    <connection from="1si" to="3o" fromLane="0" toLane="0" tl="0" linkIndex="12"/>
    <connection from="1si" to="2o" fromLane="1" toLane="0" tl="0" linkIndex="13"/>
    <connection from="1si" to="4o" fromLane="2" toLane="0" tl="0" linkIndex="14"/>
    <connection from="1si" to="1o" fromLane="2" toLane="0" tl="0" linkIndex="15"/>
    <connection from="2si" to="4o" fromLane="0" toLane="0" tl="0" linkIndex="4"/>
    <connection from="2si" to="1o" fromLane="1" toLane="0" tl="0" linkIndex="5"/>
    <connection from="2si" to="3o" fromLane="2" toLane="0" tl="0" linkIndex="6"/>
    <connection from="2si" to="2o" fromLane="2" toLane="0" tl="0" linkIndex="7"/>
    <connection from="3si" to="2o" fromLane="0" toLane="0" tl="0" linkIndex="8"/>
    <connection from="3si" to="4o" fromLane="1" toLane="0" tl="0" linkIndex="9"/>
    <connection from="3si" to="1o" fromLane="2" toLane="0" tl="0" linkIndex="10"/>
    <connection from="3si" to="3o" fromLane="2" toLane="0" tl="0" linkIndex="11"/>
    <connection from="4si" to="1o" fromLane="0" toLane="0" tl="0" linkIndex="0"/>
    <connection from="4si" to="3o" fromLane="1" toLane="0" tl="0" linkIndex="1"/>
    <connection from="4si" to="2o" fromLane="2" toLane="0" tl="0" linkIndex="2"/>
    <connection from="4si" to="4o" fromLane="2" toLane="0" tl="0" linkIndex="3"/>
</tlLogics>
