<?xml version="1.0" encoding="UTF-8"?>

<!-- generated on 01/16/20 12:27:21 by Eclipse SUMO netconvert Version 1.2.0
<configuration xmlns:xsi="http://www.w3.org/2001/XMLSchema-instance" xsi:noNamespaceSchemaLocation="http://sumo.dlr.de/xsd/netconvertConfiguration.xsd">

    <input>
        <sumo-net-file value="net.net.xml"/>
    </input>

    <output>
        <plain-output-prefix value="plain"/>
    </output>

    <processing>
        <geometry.max-grade.fix value="false"/>
        <offset.disable-normalization value="true"/>
        <lefthand value="false"/>
    </processing>

    <junctions>
        <no-turnarounds value="true"/>
        <junctions.corner-detail value="0"/>
        <junctions.limit-turn-speed value="-1"/>
        <rectangular-lane-cut value="false"/>
    </junctions>

    <pedestrian>
        <walkingareas value="false"/>
    </pedestrian>

</configuration>
-->

<nodes version="1.1" xmlns:xsi="http://www.w3.org/2001/XMLSchema-instance" xsi:noNamespaceSchemaLocation="http://sumo.dlr.de/xsd/nodes_file.xsd">
    <location netOffset="500.00,500.00" convBoundary="0.00,0.00,1000.00,1000.00" origBoundary="-500.00,-500.00,500.00,500.00" projParameter="!"/>

    <node id="0" x="500.00" y="500.00" type="traffic_light" tl="0"/>
    <node id="1" x="0.00" y="500.00" type="priority"/>
    <node id="2" x="1000.00" y="500.00" type="priority"/>
    <node id="3" x="500.00" y="0.00" type="priority"/>
    <node id="4" x="500.00" y="1000.00" type="priority"/>
    <node id="m1" x="250.00" y="500.00" type="priority"/>
    <node id="m2" x="750.00" y="500.00" type="priority"/>
    <node id="m3" x="500.00" y="250.00" type="priority"/>
    <node id="m4" x="500.00" y="750.00" type="priority"/>
</nodes>
